02_Pre_Reaction_Complex_PRC
  Strict Covalent Connectivity for Spartan

 30 28  0  0  0  0  0  0  0  0999 V2000
    0.0000    0.0000    0.0000 Al  0  0  0  0  0  0  0  0  0  0  0  0
   -1.2440   -0.5088   -0.8862 O   0  0  0  0  0  0  0  0  0  0  0  0
    0.4869   -1.1905    0.9689 O   0  0  0  0  0  0  0  0  0  0  0  0
    1.2099    0.4333   -0.9689 O   0  0  0  0  0  0  0  0  0  0  0  0
   -0.4528    1.2635    0.8910 O   0  0  0  0  0  0  0  0  0  0  0  0
   -1.7528   -1.7528   -1.7723 Si  0  0  0  0  0  0  0  0  0  0  0  0
    0.0000   -2.1594    2.1594 Si  0  0  0  0  0  0  0  0  0  0  0  0
    2.1789    0.0000   -2.1789 Si  0  0  0  0  0  0  0  0  0  0  0  0
    0.0000    2.1545    2.1545 Si  0  0  0  0  0  0  0  0  0  0  0  0
   -0.6587   -2.2003   -2.6628 H   0  0  0  0  0  0  0  0  0  0  0  0
   -2.1513   -2.8654   -0.8814 H   0  0  0  0  0  0  0  0  0  0  0  0
   -2.9136   -1.3369   -2.5909 H   0  0  0  0  0  0  0  0  0  0  0  0
   -1.1437   -2.9741    1.6916 H   0  0  0  0  0  0  0  0  0  0  0  0
    1.1126   -3.0504    2.5579 H   0  0  0  0  0  0  0  0  0  0  0  0
   -0.4160   -1.3408    3.3201 H   0  0  0  0  0  0  0  0  0  0  0  0
    1.3642   -0.4678   -3.3225 H   0  0  0  0  0  0  0  0  0  0  0  0
    3.0694   -1.0941   -1.7314 H   0  0  0  0  0  0  0  0  0  0  0  0
    2.9974    1.1607   -2.5949 H   0  0  0  0  0  0  0  0  0  0  0  0
   -1.1437    2.9692    2.6223 H   0  0  0  0  0  0  0  0  0  0  0  0
    0.4475    1.2640    3.2487 H   0  0  0  0  0  0  0  0  0  0  0  0
    1.1126    3.0455    1.7561 H   0  0  0  0  0  0  0  0  0  0  0  0
   -1.9299    0.1771   -0.8862 H   0  0  0  0  0  0  0  0  0  0  0  0
   -4.2139    2.4610   -0.8862 V   0  0  0  0  0  0  0  0  0  0  0  0
   -3.0966    1.3438   -0.8862 O   0  0  0  0  0  0  0  0  0  0  0  0
   -4.6334    2.8806   -2.5644 O   0  0  0  0  0  0  0  0  0  0  0  0
   -5.6611    1.8529   -0.0471 O   0  0  0  0  0  0  0  0  0  0  0  0
   -3.6058    3.9082   -0.0471 O   0  0  0  0  0  0  0  0  0  0  0  0
   -4.6334    2.8806   -3.5344 H   0  0  0  0  0  0  0  0  0  0  0  0
   -6.2551    1.2590    0.4379 H   0  0  0  0  0  0  0  0  0  0  0  0
   -3.0118    4.5022    0.4379 H   0  0  0  0  0  0  0  0  0  0  0  0
  6  2  1  0  0  0  0
  7  3  1  0  0  0  0
  8  4  1  0  0  0  0
  9  5  1  0  0  0  0
  6 10  1  0  0  0  0
  6 11  1  0  0  0  0
  6 12  1  0  0  0  0
  7 13  1  0  0  0  0
  7 14  1  0  0  0  0
  7 15  1  0  0  0  0
  8 16  1  0  0  0  0
  8 17  1  0  0  0  0
  8 18  1  0  0  0  0
  9 19  1  0  0  0  0
  9 20  1  0  0  0  0
  9 21  1  0  0  0  0
  1  2  1  0  0  0  0
  1  3  1  0  0  0  0
  1  4  1  0  0  0  0
  1  5  1  0  0  0  0
 23 24  2  0  0  0  0
 23 25  1  0  0  0  0
 23 26  1  0  0  0  0
 23 27  1  0  0  0  0
  2 22  1  0  0  0  0
 25 28  1  0  0  0  0
 26 29  1  0  0  0  0
 27 30  1  0  0  0  0
M  END

