 xtb: 6.7.1pre (5071a88)
          07292601343D

 30 28  0     0  0            999 V2000
    0.0440   -0.3217    0.2094 Al  0  0  0  0  0  0  0  0  0  0  0  0
   -1.3379   -1.1450   -0.2992 O   0  0  0  0  0  0  0  0  0  0  0  0
    0.7668   -1.3179    1.5309 O   0  0  0  0  0  0  0  0  0  0  0  0
    1.3247   -0.0977   -0.8927 O   0  0  0  0  0  0  0  0  0  0  0  0
   -0.3624    1.1726    0.9778 O   0  0  0  0  0  0  0  0  0  0  0  0
   -2.6340   -1.9258   -0.8332 Si  0  0  0  0  0  0  0  0  0  0  0  0
    0.9869   -2.9354    1.5801 Si  0  0  0  0  0  0  0  0  0  0  0  0
    2.7529    0.2743   -1.5088 Si  0  0  0  0  0  0  0  0  0  0  0  0
   -0.2243    2.7739    0.8417 Si  0  0  0  0  0  0  0  0  0  0  0  0
   -2.2012   -2.8901   -1.8520 H   0  0  0  0  0  0  0  0  0  0  0  0
   -3.2390   -2.6242    0.3102 H   0  0  0  0  0  0  0  0  0  0  0  0
   -3.5652   -0.9442   -1.3985 H   0  0  0  0  0  0  0  0  0  0  0  0
    2.3647   -3.1984    1.1173 H   0  0  0  0  0  0  0  0  0  0  0  0
    0.7949   -3.2624    3.0011 H   0  0  0  0  0  0  0  0  0  0  0  0
    0.0232   -3.6069    0.7091 H   0  0  0  0  0  0  0  0  0  0  0  0
    3.2383   -0.8973   -2.2504 H   0  0  0  0  0  0  0  0  0  0  0  0
    3.7032    0.6214   -0.4152 H   0  0  0  0  0  0  0  0  0  0  0  0
    2.5772    1.4405   -2.3860 H   0  0  0  0  0  0  0  0  0  0  0  0
   -0.9317    3.3347    2.0017 H   0  0  0  0  0  0  0  0  0  0  0  0
   -0.9909    0.7631    4.0832 H   0  0  0  0  0  0  0  0  0  0  0  0
   -0.7098    3.2125   -0.4618 H   0  0  0  0  0  0  0  0  0  0  0  0
    2.0007    2.6694    0.6827 H   0  0  0  0  0  0  0  0  0  0  0  0
    1.7096   -0.0386    2.3177 V   0  0  0  0  0  0  0  0  0  0  0  0
    1.3241    3.2162    1.0870 O   0  0  0  0  0  0  0  0  0  0  0  0
    3.1855   -0.6247    2.3252 O   0  0  0  0  0  0  0  0  0  0  0  0
    1.7150    1.3344    3.0979 O   0  0  0  0  0  0  0  0  0  0  0  0
   -0.7354    0.0544    3.4846 O   0  0  0  0  0  0  0  0  0  0  0  0
    4.1083   -0.8680    2.4106 H   0  0  0  0  0  0  0  0  0  0  0  0
    1.6381    2.2198    3.4575 H   0  0  0  0  0  0  0  0  0  0  0  0
   -0.9506    0.3600    2.5884 H   0  0  0  0  0  0  0  0  0  0  0  0
  1  2  1  0  0  0  0
  1  3  1  0  0  0  0
  1  4  1  0  0  0  0
  1  5  1  0  0  0  0
  2  6  1  0  0  0  0
  3  7  1  0  0  0  0
  4  8  1  0  0  0  0
  5  9  1  0  0  0  0
  6 10  1  0  0  0  0
  6 11  1  0  0  0  0
  6 12  1  0  0  0  0
  7 13  1  0  0  0  0
  7 14  1  0  0  0  0
  7 15  1  0  0  0  0
  8 16  1  0  0  0  0
  8 17  1  0  0  0  0
  8 18  1  0  0  0  0
  9 19  1  0  0  0  0
  9 21  1  0  0  0  0
  3 23  1  0  0  0  0
  9 24  1  0  0  0  0
 22 24  1  0  0  0  0
 23 25  2  0  0  0  0
 23 26  2  0  0  0  0
 20 27  1  0  0  0  0
 25 28  1  0  0  0  0
 26 29  1  0  0  0  0
 27 30  1  0  0  0  0
M  END
